12
 
O        -5.761   22.314   76.011    
O        -5.585   22.312   76.227    
O        -5.728   22.098   76.218    
O        -0.552   20.646   71.417    
O        -5.707   21.703   75.812    
O        -5.560   21.913   75.821    
O        -5.378   22.095   75.829    
O        -5.542   21.690   76.022    
O        -5.378   21.892   76.031    
O        -5.336   21.671   76.207    
O        -5.823   21.843   76.378    
O        -5.629   21.811   76.566    
