22
biphenyl - symmetrically degenerate optimized geom
C       0.000000000    0.000000000    3.567586899
C      -0.367316991    1.152358055    2.862112045
C      -0.368773013    1.151826024    1.464570045
C       0.000000000    0.000000000    0.742190003
C       0.368773013   -1.151826024    1.464570045
C       0.367316991   -1.152358055    2.862112045
C       0.367316991    1.152358055   -2.862112045
C       0.000000000    0.000000000   -3.567586899
C      -0.367316991   -1.152358055   -2.862112045
C     -0.368773013   -1.151826024   -1.464570045
C      0.000000000    0.000000000   -0.742190003
C      0.368773013    1.151826024   -1.464570045
H      -0.680060029    2.042459965    0.927608013
H       0.680060029   -2.042459965    0.927608013
H      -0.661190987    2.049071074    3.399612904
H       0.661190987   -2.049071074    3.399612904
H       0.000000000    0.000000000   -4.653251171
H       0.661190987    2.049071074   -3.399612904
H       0.680060029    2.042459965   -0.927608013
H      -0.680060029   -2.042459965   -0.927608013
H      -0.661190987   -2.049071074   -3.399612904
H      0.000000000    0.000000000    4.653251171
