515
 
O        -1.449   18.563   70.176    
O        -1.239   18.405   70.169    
O        -1.100   18.181   70.159    
O        -1.052   17.922   70.148    
O        -1.335   17.676   70.265    
O        -1.777   18.412   70.297    
O        -1.528   18.350   70.294    
O        -1.343   18.171   70.287    
O        -1.273   17.925   70.276    
O        -1.896   18.132   70.364    
O        -1.642   18.132   70.364    
O        -1.515   17.913   70.354    
O        -1.769   17.912   70.381    
O        -2.649   19.132   70.773    
O        -2.615   18.869   70.761    
O        -2.649   18.607   70.750    
O        -2.746   18.361   70.739    
O        -3.072   18.181   70.938    
O        -2.804   19.123   70.979    
O        -3.352   18.212   71.110    
O        -3.142   19.336   71.159    
O        -3.664   18.352   71.244    
O        -2.472   17.527   70.931    
O        -2.402   17.360   71.157    
O        -2.198   17.191   71.150    
O        -2.251   17.390   70.925    
O        -2.381   17.149   71.355    
O        -2.210   16.956   71.346    
O        -2.438   16.935   71.516    
O        -3.166   17.505   71.164    
O        -2.902   17.522   71.164    
O        -2.642   17.472   71.162    
O        -3.105   17.355   71.364    
O        -2.599   17.287   71.361    
O        -2.976   17.638   70.936    
O        -3.164   17.141   71.525    
O        -2.902   17.165   71.526    
O        -2.648   17.093   71.523    
O        -2.718   17.610   70.935    
O        -1.516   22.545   75.875    
O        -0.843   21.618   73.746    
O        -0.694   21.726   73.965    
O        -0.526   21.725   74.156    
O        -0.355   21.585   74.314    
O        -0.105   21.211   74.429    
O        -0.149   21.460   74.440    
O        -0.552   20.646   71.417    
O        -1.565   21.835   73.306    
O        -1.415   21.848   73.539    
O        -1.215   21.694   73.532    
O        -1.145   21.699   73.777    
O        -0.976   21.508   73.769    
O        -2.803   19.203   74.648    
O        -2.487   19.234   74.864    
O        -2.298   19.551   75.232    
O        -1.515   19.433   74.872    
O        -1.990   19.394   75.062    
O        -1.738   19.312   74.867    
O        -2.300   18.659   70.968    
O        -2.258   18.911   70.979    
O        -2.511   18.792   71.101    
O        -2.440   19.042   71.112    
O        -2.607   19.148   71.276    
O        -2.276   17.746   71.214    
O        -2.056   17.610   71.208    
O        -2.071   17.419   71.387    
O        -2.300   17.542   71.392    
O        -2.058   17.252   71.589    
O        -2.291   17.359   71.594    
O        -2.353   17.258   71.819    
O        -2.741   17.518   73.073    
O        -2.508   17.436   73.299    
O        -2.690   17.617   73.307    
O        -2.496   17.609   73.517    
O        -2.662   17.809   73.525    
O        -2.864   18.287   73.546    
O        -2.466   17.825   73.713    
O        -2.604   18.044   73.722    
O        -2.689   18.289   73.733    
O        -2.494   18.482   71.075    
O        -2.613   18.257   71.092    
O        -3.099   18.088   71.291    
O        -2.698   19.159   71.338    
O        -3.364   18.209   71.467    
O        -3.088   19.149   71.508    
O        -2.682   17.781   71.278    
O        -2.871   17.641   71.442    
O        -3.088   17.780   71.449    
O        -2.919   17.895   71.283    
O        -2.419   17.760   71.277    
O        -2.419   17.403   71.639    
O        -2.684   17.417   71.639    
O        -2.936   17.497   71.643    
O        -3.161   17.637   71.649    
O        -2.494   17.286   71.867    
O        -2.752   17.315   71.868    
O        -2.997   17.401   71.872    
O        -2.990   17.365   72.625    
O        -3.534   17.799   72.394    
O        -3.211   17.501   72.631    
O        -3.623   18.147   72.659    
O        -2.944   17.447   72.862    
O        -3.199   18.518   73.286    
O        -2.990   18.372   73.407    
O        -1.013   18.402   70.521    
O        -0.879   18.186   70.538    
O        -1.132   18.177   70.538    
O        -1.267   18.393   70.547    
O        -1.013   17.902   70.605    
O        -1.261   17.968   70.608    
O        -1.443   18.150   70.616    
O        -1.509   18.398   70.627    
O        -1.438   17.815   70.729    
O        -1.618   18.008   70.737    
O        -1.716   18.252   70.748    
O        -0.278   18.313   73.894    
O        -0.433   18.304   74.100    
O        -0.534   17.559   74.067    
O        -0.701   17.362   74.059    
O        -0.917   17.221   74.053    
O        -0.771   17.551   74.238    
O        -0.981   17.393   74.231    
O        -2.343   17.550   73.627    
O        -0.731   16.925   74.327    
O        -0.556   17.122   74.336    
O        -0.321   17.242   74.341    
O        -0.880   17.037   74.503    
O        -0.711   17.232   74.511    
O        -0.494   17.372   74.517    
O        -3.304   17.066   72.789    
O        -3.121   17.070   72.999    
O        -2.800   18.613   70.957    
O        -2.905   18.378   70.946    
O        -2.765   18.869   70.968    
O        -3.003   18.594   71.127    
O        -3.142   18.370   71.117    
O        -3.003   19.112   71.149    
O        -2.955   18.853   71.138    
O        -3.238   18.607   71.255    
O        -3.417   18.422   71.247    
O        -3.246   19.102   71.277    
O        -3.176   18.856   71.266    
O        -3.545   18.624   71.335    
O        -3.418   18.844   71.344    
O        -2.847   17.357   71.364    
O        -0.718   21.473   73.954    
O        -0.554   21.473   74.145    
O        -0.353   21.329   74.303    
O        -3.029   19.324   74.653    
O        -2.731   19.306   74.867    
O        -2.956   19.424   74.872    
O        -2.494   19.394   75.062    
O        -2.734   19.477   75.066    
O        -2.550   19.601   75.235    
O        -2.606   19.855   75.377    
O        -2.799   20.017   75.384    
O        -1.750   19.477   75.066    
O        -2.908   19.583   72.163    
O        -3.039   19.335   72.910    
O        -3.021   19.185   73.146    
O        -2.837   17.828   73.316    
O        -2.787   18.038   73.535    
O        -2.748   18.473   71.101    
O        -2.628   18.696   71.111    
O        -2.924   18.230   71.170    
O        -2.990   18.478   71.181    
O        -2.924   18.725   71.191    
O        -2.742   18.907   71.199    
O        -3.197   18.332   71.302    
O        -3.200   18.595   71.313    
O        -3.108   18.842   71.324    
O        -2.933   19.039   71.333    
O        -3.401   18.465   71.478    
O        -3.364   18.720   71.490    
O        -3.257   18.954   71.500    
O        -2.623   17.568   71.439    
O        -3.174   19.264   71.720    
O        -2.997   19.490   71.963    
O        -3.349   19.023   72.931    
O        -3.654   18.445   71.917    
O        -3.354   19.069   71.711    
O        -3.699   18.295   72.161    
O        -3.700   18.292   72.416    
O        -3.654   18.404   72.670    
O        -3.476   18.791   72.920    
O        -3.479   18.836   71.701    
O        -3.167   17.589   72.868    
O        -3.349   17.782   72.876    
O        -3.476   18.014   72.886    
O        -3.542   18.270   72.898    
O        -3.536   17.902   72.648    
O        -3.396   17.683   72.639    
O        -2.863   17.566   73.073    
O        -3.081   17.703   73.079    
O        -3.252   17.897   73.088    
O        -3.362   18.130   73.098    
O        -3.401   18.385   73.109    
O        -2.926   17.814   73.255    
O        -3.104   18.009   73.264    
O        -3.199   18.254   73.274    
O        -2.529   20.353   76.045    
O        -2.914   21.305   75.842    
O        -2.590   20.844   76.318    
O        -2.530   20.600   76.307    
O        -2.549   20.099   76.034    
O        -2.710   21.088   76.078    
O        -2.896   19.861   71.943    
O        -2.917   19.607   72.175    
O        -3.056   19.345   72.920    
O        -3.132   19.412   71.923    
O        -3.264   19.433   71.695    
O        -2.996   19.627   71.932    
O        -3.423   18.979   72.904    
O        -3.295   19.173   73.156    
O        -3.422   19.165   71.736    
O        -3.517   18.919   71.726    
O        -3.671   18.703   71.716    
O        -3.724   18.503   71.941    
O        -3.717   18.475   72.694    
O        -3.521   18.858   72.944    
N        -2.949   19.612   75.072    
N        -3.128   19.792   75.079    
N        -2.779   19.717   75.240    
N        -2.968   19.890   75.247    
N        -3.217   19.352   71.957    
N        -3.381   19.262   72.203    
N        -3.182   19.433   72.210    
N        -2.951   19.558   72.216    
N        -3.375   19.257   72.458    
N        -3.175   19.427   72.465    
N        -3.406   19.129   72.702    
N        -3.224   19.314   72.710    
N        -3.167   19.216   72.939    
N        -3.625   18.703   71.929    
N        -3.700   18.554   72.427    
N        -3.644   18.810   72.438    
N        -3.534   19.048   72.449    
N        -3.701   18.557   72.172    
N        -3.646   18.814   72.183    
N        -3.627   18.662   72.682    
N        -3.543   18.908   72.692    
N        -3.538   19.052   72.194    
N        -3.539   18.948   71.939    
N        -3.401   19.168   71.949    
N        -2.707   20.119   75.558    
N        -2.775   20.875   75.591    
N        -2.707   20.629   75.580    
N        -2.684   20.374   75.569    
N        -2.607   20.121   75.791    
N        -2.775   21.095   75.833    
N        -2.673   20.866   75.823    
N        -2.610   20.622   75.812    
N        -2.588   20.372   75.802    
N        -2.610   20.854   76.067    
N        -2.549   20.607   76.057    
N        -3.301   19.222   71.915    
N        -3.051   19.385   72.165    
N        -3.219   19.187   72.156    
N        -3.010   19.366   72.416    
N        -3.176   19.166   72.407    
N        -3.006   19.362   72.670    
N        -3.170   19.161   72.661    
N        -3.225   19.148   72.912    
N        -3.316   19.152   71.969    
N        -3.402   18.906   71.958    
N        -3.540   18.687   71.949    
N        -3.342   18.897   72.208    
N        -3.476   18.672   72.198    
N        -3.655   18.480   72.189    
N        -3.346   18.878   72.462    
N        -3.481   18.654   72.452    
N        -3.662   18.464   72.444    
N        -3.398   18.881   72.712    
N        -3.535   18.660   72.702    
O        -1.831   22.245   76.250    
O        -2.084   22.167   76.246    
O        -1.839   22.063   76.444    
O        -2.096   22.364   76.081    
O        -2.336   22.073   76.209    
O        -2.580   22.008   76.206    
O        -2.060   22.027   76.351    
O        -2.262   21.870   76.344    
O        -2.508   21.797   76.341    
O        -2.041   21.806   76.531    
O        -2.264   21.677   76.525    
O        -2.515   21.620   76.523    
O        -2.755   19.133   75.061    
O        -2.567   19.134   75.235    
O        -2.436   19.378   75.447    
O        -2.313   19.376   75.673    
O        -2.295   19.610   75.925    
O        -2.363   19.845   76.188    
O        -3.379   19.077   74.655    
O        -3.114   19.123   74.801    
O        -2.977   18.907   74.791    
O        -2.797   18.894   74.980    
O        -2.886   17.501   73.455    
O        -2.861   17.241   73.443    
O        -3.129   18.187   73.727    
O        -2.979   17.972   73.718    
O        -2.868   17.735   73.707    
O        -2.800   17.482   73.696    
O        -2.936   17.970   73.970    
O        -2.826   17.733   73.960    
O        -3.594   18.342   73.266    
O        -2.982   17.242   73.218    
O        -3.431   18.369   73.493    
O        -3.590   17.524   72.714    
O        -3.842   18.103   72.880    
O        -3.328   17.258   72.843    
O        -3.140   17.259   73.017    
O        -3.918   17.907   72.731    
O        -0.767   22.136   75.390    
O        -0.526   21.714   75.512    
O        -0.756   21.833   75.517    
O        -0.946   22.010   75.525    
O        -1.276   22.205   75.707    
O        -1.080   22.231   75.534    
O        -0.569   21.974   75.383    
O        -1.342   21.965   75.899    
O        -1.445   22.206   75.909    
O        -1.528   22.064   76.128    
O        -0.453   21.121   75.776    
O        -0.771   20.846   76.178    
O        -1.368   21.172   76.438    
O        -3.271   19.395   74.829    
O        -3.017   19.399   74.932    
O        -2.969   19.148   74.921    
O        -2.790   19.390   75.072    
O        -2.692   19.645   75.257    
O        -2.599   19.397   75.246    
O        -2.642   19.858   75.468    
O        -2.515   19.628   75.458    
O        -2.505   19.861   75.694    
O        -2.386   19.627   75.684    
O        -2.556   20.062   75.945    
O        -2.406   19.847   75.936    
O        -2.510   20.062   76.198    
O        -1.439   20.321   76.450    
O        -1.182   20.370   76.453    
O        -1.109   20.264   76.223    
O        -0.847   20.250   76.222    
O        -1.905   20.086   76.440    
O        -1.683   20.225   76.446    
O        -1.675   19.490   75.307    
O        -1.008   19.669   75.315    
O        -1.916   20.014   76.134    
O        -2.959   17.752   73.466    
O        -3.720   17.744   72.724    
O        -3.630   17.953   72.873    
O        -3.467   17.753   72.865    
O        -3.363   17.515   72.854    
O        -3.606   18.170   73.056    
O        -3.412   17.990   73.048    
O        -3.265   17.770   73.039    
O        -3.172   17.522   73.028    
O        -3.386   18.182   73.259    
O        -3.215   17.983   73.250    
O        -3.088   17.753   73.240    
O        -3.009   17.503   73.229    
O        -3.237   18.194   73.485    
O        -3.078   17.986   73.476    
N        -1.155   21.970   75.697    
N        -3.057   19.828   75.091    
N        -2.894   19.628   75.083    
N        -2.839   19.865   75.266    
H        -0.643   21.602   75.563    
H        -0.525   21.332   75.641    
H        -0.769   21.397   75.644    
H        -0.948   21.576   75.652    
H        -1.013   21.820   75.662    
H        -0.708   21.142   75.777    
H        -0.938   21.253   75.781    
H        -1.113   21.440   75.790    
H        -1.208   21.677   75.800    
H        -0.717   20.963   75.958    
H        -0.957   21.057   75.962    
H        -1.158   21.218   75.969    
H        -1.304   21.430   75.979    
H        -1.379   21.676   75.989    
H        -1.009   20.942   76.182    
H        -1.213   21.096   76.188    
H        -1.371   21.298   76.197    
H        -1.471   21.533   76.208    
H        -1.496   19.669   75.315    
H        -1.252   19.734   75.317    
H        -1.848   19.599   75.455    
H        -1.678   19.790   75.464    
H        -1.450   19.907   75.469    
H        -1.196   19.934   75.470    
H        -0.949   19.867   75.467    
H        -1.885   19.819   75.655    
H        -1.684   19.980   75.662    
H        -1.444   20.074   75.666    
H        -1.187   20.093   75.667    
H        -0.936   20.036   75.664    
H        -1.952   19.910   75.883    
H        -1.750   20.068   75.890    
H        -1.514   20.168   75.894    
H        -1.260   20.203   75.896    
H        -1.006   20.172   75.894    
H        -1.696   20.154   76.140    
H        -1.447   20.234   76.143    
H        -1.187   20.251   76.144    
O        -1.207   21.897   72.974    
O        -1.102   21.888   73.215    
O        -1.203   22.120   73.225    
O        -0.943   21.880   73.434    
O        -1.060   22.111   73.444    
O        -1.780   22.111   75.723    
O        -2.030   22.071   75.721    
O        -2.475   21.663   75.923    
O        -2.267   21.818   75.930    
O        -2.028   21.920   75.935    
O        -2.445   21.431   76.104    
O        -2.259   21.608   76.112    
O        -2.032   21.728   76.117    
O        -2.273   21.309   76.255    
O        -2.077   21.474   76.262    
O        -1.836   21.561   76.266    
O        -0.857   21.649   74.234    
O        -0.461   21.412   74.684    
O        -0.387   21.167   74.674    
O        -0.361   20.913   74.663    
O        -0.679   21.630   74.453    
O        -1.015   20.584   76.223    
O         0.033   18.209   74.300    
O        -0.029   18.461   74.311    
O        -0.874   21.999   75.223    
O        -0.683   21.827   75.215    
O        -1.391   22.179   75.485    
O        -1.149   22.095   75.481    
O        -0.927   21.967   75.476    
O        -0.733   21.800   75.468    
O        -1.526   22.100   75.723    
O        -1.280   22.038   75.720    
O        -1.514   21.950   75.936    
O        -0.575   21.599   75.460    
O        -0.482   21.121   75.680    
O        -1.524   21.767   76.119    
O        -0.765   20.851   76.079    
O        -1.580   21.561   76.266    
O        -0.971   20.836   76.234    
O        -1.462   21.273   76.369    
O        -0.480   21.167   74.433    
O        -0.713   21.433   74.224    
O        -0.623   21.190   74.214    
O        -0.556   21.409   74.443    
O        -2.758   21.233   75.905    
O        -2.434   20.242   76.052    
O        -2.643   20.963   76.084    
O        -2.906   21.228   75.684    
O        -2.401   20.584   76.223    
O        -2.445   20.836   76.234    
O        -2.590   19.855   75.383    
O        -2.245   20.068   76.045    
O        -2.469   19.866   75.625    
O        -2.654   20.039   75.633    
O        -2.267   19.885   75.846    
O        -2.475   20.039   75.852    
O        -2.381   19.706   75.377    
O        -2.253   19.733   75.619    
O        -1.836   20.111   76.203    
O        -2.016   19.952   76.040    
O        -0.852   20.134   75.857    
O        -0.927   19.775   75.380    
O        -2.014   19.647   75.615    
O        -1.266   20.586   76.339    
O        -1.448   20.398   76.330    
O        -1.700   20.326   76.327    
O        -1.143   20.363   76.214    
N        -1.052   21.928   75.715    
N        -2.901   20.478   75.652    
N        -2.800   20.246   75.642    
N        -2.641   20.238   75.861    
N        -2.758   20.469   75.871    
N        -2.818   20.722   75.882    
N        -2.818   20.981   75.894    
N        -2.570   20.460   76.062    
N        -2.641   20.706   76.073    
H        -0.850   21.774   75.708    
H        -0.684   21.583   75.700    
H        -0.560   21.362   75.690    
H        -1.265   21.876   75.933    
H        -1.041   21.746   75.927    
H        -0.852   21.569   75.919    
H        -0.710   21.352   75.910    
H        -0.621   21.109   75.899    
H        -1.281   21.683   76.115    
H        -1.070   21.537   76.109    
H        -0.906   21.339   76.100    
H        -0.802   21.105   76.090    
H        -1.339   21.474   76.262    
H        -1.143   21.309   76.255    
H        -1.015   21.088   76.245    
H        -1.274   21.091   76.361    
H        -0.839   19.959   75.629    
H        -1.038   19.803   75.622    
H        -1.265   19.690   75.617    
H        -1.510   19.624   75.614    
H        -1.763   19.610   75.614    
H        -1.058   20.160   76.049    
H        -1.267   20.010   76.042    
H        -1.508   19.922   76.038    
H        -1.764   19.902   76.038    
H        -1.149   19.648   75.374    
H        -1.391   19.564   75.371    
H        -1.644   19.528   75.369    
H        -1.041   19.956   75.849    
H        -1.339   20.198   76.206    
H        -1.580   20.111   76.203    
H        -1.265   19.826   75.843    
H        -1.514   19.752   75.840    
H        -1.773   19.737   75.839    
H        -2.028   19.782   75.841    
