73
 
H        -0.643   21.602   75.563    
H        -0.525   21.332   75.641    
H        -0.769   21.397   75.644    
H        -0.948   21.576   75.652    
H        -1.013   21.820   75.662    
H        -0.708   21.142   75.777    
H        -0.938   21.253   75.781    
H        -1.113   21.440   75.790    
H        -1.208   21.677   75.800    
H        -0.717   20.963   75.958    
H        -0.957   21.057   75.962    
H        -1.158   21.218   75.969    
H        -1.304   21.430   75.979    
H        -1.379   21.676   75.989    
H        -1.009   20.942   76.182    
H        -1.213   21.096   76.188    
H        -1.371   21.298   76.197    
H        -1.471   21.533   76.208    
H        -1.496   19.669   75.315    
H        -1.252   19.734   75.317    
H        -1.848   19.599   75.455    
H        -1.678   19.790   75.464    
H        -1.450   19.907   75.469    
H        -1.196   19.934   75.470    
H        -0.949   19.867   75.467    
H        -1.885   19.819   75.655    
H        -1.684   19.980   75.662    
H        -1.444   20.074   75.666    
H        -1.187   20.093   75.667    
H        -0.936   20.036   75.664    
H        -1.952   19.910   75.883    
H        -1.750   20.068   75.890    
H        -1.514   20.168   75.894    
H        -1.260   20.203   75.896    
H        -1.006   20.172   75.894    
H        -1.696   20.154   76.140    
H        -1.447   20.234   76.143    
H        -1.187   20.251   76.144    
H        -0.850   21.774   75.708    
H        -0.684   21.583   75.700    
H        -0.560   21.362   75.690    
H        -1.265   21.876   75.933    
H        -1.041   21.746   75.927    
H        -0.852   21.569   75.919    
H        -0.710   21.352   75.910    
H        -0.621   21.109   75.899    
H        -1.281   21.683   76.115    
H        -1.070   21.537   76.109    
H        -0.906   21.339   76.100    
H        -0.802   21.105   76.090    
H        -1.339   21.474   76.262    
H        -1.143   21.309   76.255    
H        -1.015   21.088   76.245    
H        -1.274   21.091   76.361    
H        -0.839   19.959   75.629    
H        -1.038   19.803   75.622    
H        -1.265   19.690   75.617    
H        -1.510   19.624   75.614    
H        -1.763   19.610   75.614    
H        -1.058   20.160   76.049    
H        -1.267   20.010   76.042    
H        -1.508   19.922   76.038    
H        -1.764   19.902   76.038    
H        -1.149   19.648   75.374    
H        -1.391   19.564   75.371    
H        -1.644   19.528   75.369    
H        -1.041   19.956   75.849    
H        -1.339   20.198   76.206    
H        -1.580   20.111   76.203    
H        -1.265   19.826   75.843    
H        -1.514   19.752   75.840    
H        -1.773   19.737   75.839    
H        -2.028   19.782   75.841    
